13
CT: CN: 0  0  0  0  0 12  0  0  0  0  0  0  1  0  0  0
Au	-1.8074	-0.0001	-1.8070	-2.8726
Cu	-1.8073	-0.0001	1.8073	-2.6241
Ag	-1.8076	1.8074	-0.0001	-2.4321
Au	0.0001	-1.8076	-1.8073	-2.8740
Au	-1.8077	-1.8073	0.0001	-2.9837
Ag	0.0003	-1.8073	1.8071	-2.3479
Au	0.0002	0.0000	0.0001	-1.8994
Ag	-0.0004	1.8074	-1.8073	-2.3474
Au	-0.0002	1.8075	1.8072	-2.8538
Ag	1.8076	-1.8074	0.0001	-2.2682
Ag	1.8073	-0.0002	-1.8076	-2.3430
Ag	1.8076	0.0001	1.8072	-2.3382
Au	1.8076	1.8075	0.0000	-2.7519
